; Filename: Optimised_network.inp
; WNTR: 0.3.0
; Created: 2021-02-11 14:00:38
[TITLE]

[JUNCTIONS]
;ID                      Elevation       Demand Pattern                 
 J1                                20         19.8725 1                          ;
 J2                                20     33.31041667 1                          ;
 J3                                20     24.44416667 1                          ;
 J4                                30        16.33125 1                          ;
 J5                                10     11.37166667 1                          ;
 J6                                10     33.30083333 1                          ;
 J7                                10     20.28083333 1                          ;
 J8                                10        10.66875 1                          ;
 J9                                10     10.89666667 1                          ;
 J10                               10     21.35208333 1                          ;
 J11                               10     19.69166667 1                          ;
 J12                               10     39.03458333 1                          ;
 J13                               20           38.01 1                          ;
 J14                               10         22.8425 1                          ;
 J15                               10        28.11625 1                          ;
 J16                               10     40.91166667 1                          ;
 J17                               10        23.73625 1                          ;
 J18                               10     20.43333333 1                          ;
 J19                               10     1.168333333 1                          ;
 J20                               10     6.677916667 1                          ;
 J21                               10     4.460833333 1                          ;
 J22                               10         2.46875 1                          ;
 J23                               10         10.2175 1                          ;
 J24                               20     26.08666667 1                          ;
 J25                               30            8.32 1                          ;
 J26                               40     4.697916667 1                          ;
 J27                               40     2.160416667 1                          ;
 J28                               40     3.119166667 1                          ;
 J29                               20     20.06541667 1                          ;
 J30                               10     22.83208333 1                          ;
 J31                               10     14.34791667 1                          ;
 J32                               20     40.71916667 1                          ;
 J33                               30     8.093333333 1                          ;
 J34                               20     19.94333333 1                          ;
 J35                               70     2.848333333 1                          ;
 J36                               60     33.41958333 1                          ;
 J37                               50     29.88833333 1                          ;
 J38                              100     13.39833333 1                          ;
 J39                               60        36.26625 1                          ;
 J40                               10          15.585 1                          ;
 J41                               30     12.53541667 1                          ;
 J42                               20     13.43833333 1                          ;
 J43                               10     13.12916667 1                          ;
 J44                               10     16.06541667 1                          ;
 J45                               20         23.7725 1                          ;
 J46                               10     14.13583333 1                          ;
 J47                               10         13.1775 1                          ;
 J48                               10     13.87333333 1                          ;
 J49                               20     21.25333333 1                          ;
 J50                               30     19.65833333 1                          ;
 J51                               20     13.28083333 1                          ;
 J52                               30           9.165 1                          ;
 J53                               50     22.04583333 1                          ;
 J54                               60     21.06208333 1                          ;
 J55                               70        15.16875 1                          ;
 J56                               50        24.90875 1                          ;
 J57                               60     33.49333333 1                          ;
 J58                               10         11.8825 1                          ;
 J59                               30     26.08791667 1                          ;
 J60                               20     23.15458333 1                          ;
 J61                               10     30.34666667 1                          ;
 AIRPORT                           10     50.37083333 1                          ;
 J62                               10     15.99041667 1                          ;
 J63                               10        26.01125 1                          ;
 J64                               10     45.45083333 1                          ;
 J74                               20     26.46791667 1                          ;
 J75                               30           18.91 1                          ;
 J76                               20     15.18333333 1                          ;
 J77                               30     10.17958333 1                          ;
 J78                               40     26.42416667 1                          ;
 J79                               10     29.41708333 1                          ;
 J80                               20     20.81208333 1                          ;
 J81                               30     9.937083333 1                          ;
 J82                               40          1.0225 1                          ;
 J83                               10     15.08083333 1                          ;
 J84                               10     11.28083333 1                          ;
 J85                               10     18.89708333 1                          ;
 J86                               10     31.07041667 1                          ;
 J100                              10     35.65583333 1                          ;
 J101                              40     110.1229167 1                          ;
 J102                              40        83.46875 1                          ;
 UNITAL                            40     18.48666667 1                          ;
 J103                              10     24.34666667 1                          ;
 PELICAN                           10     133.3041667 1                          ;
 J104                              10     9.066666667 1                          ;
 J105                             100     1.380416667 1                          ;
 J106                              80     5.245833333 1                          ;
 J107                              70     28.70333333 1                          ;
 J108                              60     26.73458333 1                          ;
 J109                              40     25.60166667 1                          ;
 J110                              30     24.29666667 1                          ;
 J111                              30     22.24208333 1                          ;
 J112                              20     6.764583333 1                          ;
 J113                              20     8.139583333 1                          ;
 J114                              20     12.08958333 1                          ;
 J115                              20     20.83916667 1                          ;
 J116                              10            8.68 1                          ;
 J117                              20     22.12208333 1                          ;
 J118                              20     18.89666667 1                          ;
 J119                              30     16.94458333 1                          ;
 J120                              30     13.83416667 1                          ;
 J121                              30     7.880833333 1                          ;
 J122                              10     24.27458333 1                          ;
 J123                              10     25.60458333 1                          ;
 J124                              10     19.77166667 1                          ;
 J125                              50     3.384166667 1                          ;
 J126                              60            4.39 1                          ;
 J127                              10     16.70041667 1                          ;
 J128                              10     23.55833333 1                          ;
 J129                              10     18.35916667 1                          ;
 J130                              10     12.52416667 1                          ;
 J134                              40     2.154166667 1                          ;
 J135                              40           1.495 1                          ;
 R_MALOA                          110            0.63 1                          ;
 J136                              30               0 1                          ;
 R_BENAMAUK                       103         2.42125 1                          ;
 J137                              70     9.616666667 1                          ;
 J138                              20     33.33583333 1                          ;
 IPDC                              40         4.76375 1                          ;
 HOSPITAL_N                        10           12.67 1                          ;
 UNTL+AGP                          10     44.31541667 1                          ;
 DIT                               30     14.66291667 1                          ;
 UNPAZ                             30     19.17958333 1                          ;
 IOB                               30        14.90125 1                          ;
 ICR                               30     7.210416667 1                          ;
 ISC                               10     29.56291667 1                          ;
 J140                              50     27.59416667 1                          ;
 J141                              80            4.43 1                          ;
 J142                              40     2.090416667 1                          ;
 J143                              40         4.19625 1                          ;
 J144                              40     0.481666667 1                          ;
 J145                              40     7.160416667 1                          ;
 J146                              10         5.63625 1                          ;
 J147                              20     15.11458333 1                          ;
 J148                              30     7.427916667 1                          ;
 J149                              30     12.36833333 1                          ;
 J150                              30     2.715416667 1                          ;
 J151                              30         3.76625 1                          ;
 J152                              40            1.55 1                          ;
 J153                              40         0.69375 1                          ;
 J154                              40     7.082083333 1                          ;
 J155                              40     1.090416667 1                          ;
 J156                              40     1.651666667 1                          ;
 J157                              40          26.255 1                          ;
 J158                              10     3.196666667 1                          ;
 J159                              10     0.069583333 1                          ;
 J160                              10            0.48 1                          ;
 J161                              10     1.057083333 1                          ;
 J162                              10     22.89791667 1                          ;
 J163                              40           0.012 1                          ;
 J164                              40          17.765 1                          ;
 J165                              10     7.577916667 1                          ;
 J166                              10               4 1                          ;
 J167                              20        11.42625 1                          ;
 J168                              20         4.59875 1                          ;
 J169                              20     8.674583333 1                          ;
 J170                              30     3.312916667 1                          ;
 J171                              30     3.644166667 1                          ;
 J172                              40     58.53583333 1                          ;
 J173                              40            3.59 1                          ;
 J174                              40     2.179166667 1                          ;
 J175                              40     21.62541667 1                          ;
 J176                              80     4.286666667 1                          ;
 J177                              80     39.19916667 1                          ;
 J178                              20               0 1                          ;
 R_CENTRAL                         66               0 1                          ;
 R_LAHANE                          51               0 1                          ;
 R_BECUSSI                         61               0 1                          ;
 R_BEMOS                           90               0 1                          ;
 R_GOLGOTA                         60               0 1                          ;
 J179                              50          15.835 1                          ;
 R_MALINAMUK                       67               0 1                          ;
 R_CULAU                          100               0 1                          ;
 R_CRISTAL                         50               0 1                          ;
 ETA_COMORO_2                     100               0 1                          ;
 J180                              90               0 1                          ;
 J181                              60               0 1                          ;
 J182                              40               0 1                          ;
 J183                              66               0 1                          ;
 J184                              20               0 1                          ;
 J185                              20               0 1                          ;
 J186                              50               0 1                          ;
 J187                              60               0 1                          ;
 J188                              40               0 1                          ;
 J189                              40               0 1                          ;
 J190                              61               0 1                          ;
 J191                              60               0 1                          ;
 J192                             100               0 1                          ;
 J193                              60       724.42845 1                          ;
 J194                              40               0 1                          ;
 J195                              50               0 1                          ;
 J196                              30               0 1                          ;
 J197                              60               0 1                          ;
 J198                              67               0 1                          ;
 J201                              30     24.27166667 1                          ;
 J202                              10            5.26 1                          ;
 J203                              40         6.58875 1                          ;
 J204                              20     4.910416667 1                          ;
 1                                 60               0 1                          ;
 2                                 67               0 1                          ;
 3                                 95               0 1                          ;
 4                                120               0 1                          ;
 5                                 66               0 1                          ;
 6                                 95               0 1                          ;
 7                                 66               0 1                          ;
 8                                 50               0 1                          ;
 9                                 51               0 1                          ;
 10                                61               0 1                          ;
 11                               100               0 1                          ;
 12                               103               0 1                          ;
 13                               140               0 1                          ;
 14                                95               0 1                          ;
 15                                66               0 1                          ;
 16                               120               0 1                          ;
 pump2                              0               0 1                          ;
 pump3                             40               0 1                          ;

[RESERVOIRS]
;ID                                   Head                  Pattern
 ETA__BENAMAUK                    140                            ;
 ETA__CENTRAL                      80                            ;
 ETA__BEMOS                       120                            ;
 ETA__COMORO                      200                            ;
 ETA_MALOA                        300                            ;

[TANKS]
;ID                              Elevation           Init Level            Min Level            Max Level             Diameter           Min Volume Volume Curve         Overflow            
 R__BEMOS                          95             2.5               0               5          24.201               0                                             ;
 R__MALINAMUK                      67             1.8               0             3.6          40.771               0                                             ;
 R__GOLGOTA                        60             2.5               0               5          24.201               0                                             ;
 R__CENTRAL                        66             2.5               0               5          55.925               0                                             ;
 R__MALOA                         120             2.5               0               5          16.429               0                                             ;
 R__CRISTAL                        50             2.5               0               5          40.053               0                                             ;
 R__LAHANE                         51               1               0               5          18.806               0                                             ;
 R__BECUSI                         61             1.5               0               3          35.682               0                                             ;
 R__CULAU                         100             2.5               0               5          21.996               0                                             ;
 R__BENAMAUK                      103               1               0            2.45          17.658               0                                             ;
 T_UPPER_MAIN            78.098962784    2.3854541779               0            1000    4.5707818328               0                                             ;
 T_UPPER_MINOR           118.09677124    2.3145961761               0            1000    1.2719065746               0                                             ;

[PIPES]
;ID                   Node1                Node2                              Length             Diameter            Roughness           Minor Loss               Status
 P1                   J35                  J36                           666.81              63           0.005               0                 Open   ;
 P2                   J35                  J126                          732.94              63           0.005               0                 Open   ;
 P3                   J126                 J125                          551.25              75           0.005               0                 Open   ;
 P4                   J125                 J27                           589.36              75           0.005               0                 Open   ;
 P5                   J27                  J82                           107.87              75           0.005               0                 Open   ;
 P6                   J37                  J36                           837.79             200           0.005               0                 Open   ;
 P7                   J157                 J39                           846.66             140           0.005               0                 Open   ;
 P8                   pump2                J38                           812.93              63           0.005               0                 Open   ;
 P9                   J26                  J81                            593.2              63           0.005               0                 Open   ;
 P10                  J28                  J33                           378.78              75           0.005               0                 Open   ;
 P11                  J81                  J121                          400.61              90           0.005               0                 Open   ;
 P12                  J3                   J59                           747.45             315           0.005               0                 Open   ;
 P13                  J59                  J4                            610.31             250           0.005               0                 Open   ;
 P14                  J59                  J60                           872.11             140           0.005               0                 Open   ;
 P15                  J3                   J2                            967.37             200           0.005               0                 Open   ;
 P16                  J2                   J60                           961.61              63           0.005               0                 Open   ;
 P17                  J2                   AIRPORT                       376.92             200           0.005               0                 Open   ;
 P18                  J61                  J60                            977.7              63           0.005               0                 Open   ;
 P19                  J61                  AIRPORT                       979.49             110           0.005               0                 Open   ;
 P20                  AIRPORT              J63                            870.9             125           0.005               0                 Open   ;
 P21                  J63                  J62                           231.53              63           0.005               0                 Open   ;
 P22                  J5                   J64                            812.9             250           0.005               0                 Open   ;
 P23                  PELICAN              J104                         1358.02             110           0.005               0                 Open   ;
 P34                  J62                  J2                            802.01             125           0.005               0                 Open   ;
 P35                  J1                   J16                           898.05             200           0.005               0                 Open   ;
 P36                  J16                  J10                           276.61             200           0.005               0                 Open   ;
 P37                  J16                  J12                           679.18              63           0.005               0                 Open   ;
 P38                  J12                  J13                           672.53             110           0.005               0                 Open   ;
 P39                  J1                   J13                           674.91             250           0.005               0                 Open   ;
 P40                  J13                  J6                             554.7             225           0.005               0                 Open   ;
 P41                  J6                   J30                           527.23             140           0.005               0                 Open   ;
 P42                  J6                   J17                           583.01             110           0.005               0                 Open   ;
 P43                  J12                  J17                           649.61              75           0.005               0                 Open   ;
 P44                  J11                  J12                           479.64             110           0.005               0                 Open   ;
 P45                  J11                  J9                            590.92             125           0.005               0                 Open   ;
 P46                  J17                  J9                            325.48              75           0.005               0                 Open   ;
 P47                  J30                  J7                            573.88             200           0.005               0                 Open   ;
 P48                  J7                   J18                           449.92             200           0.005               0                 Open   ;
 P49                  J9                   J8                            910.77              90           0.005               0                 Open   ;
 P50                  J8                   J18                           191.46             110           0.005               0                 Open   ;
 P51                  J34                  J120                          454.51             110           0.005               0                 Open   ;
 P52                  J34                  J24                           425.98             160           0.005               0                 Open   ;
 P53                  J33                  J25                           754.47             200           0.005               0                 Open   ;
 P54                  J119                 J24                           312.86             400           0.005               0                 Open   ;
 P55                  J6                   J24                           695.73             250           0.005               0                 Open   ;
 P56                  J24                  J29                           665.66             125           0.005               0                 Open   ;
 P57                  J25                  J32                           786.46             400           0.005               0                 Open   ;
 P58                  J32                  J118                          296.06             450             0.5               0                 Open   ;
 P59                  J29                  J118                          258.95             400             0.5               0                 Open   ;
 P60                  J29                  J122                          353.67             250           0.005               0                 Open   ;
 P61                  J122                 J30                           339.78             400           0.005               0                 Open   ;
 P62                  J29                  J31                           493.75              90           0.005               0                 Open   ;
 P63                  J32                  J117                          342.19             600             0.5               0                 Open   ;
 P64                  J117                 J116                          379.31             400             0.5               0                 Open   ;
 P65                  J31                  J23                           190.09             200           0.005               0                 Open   ;
 P66                  J116                 J23                           139.14             250             0.5               0                 Open   ;
 P67                  J23                  J79                           401.98             125           0.005               0                 Open   ;
 P68                  J7                   J123                          408.47             250           0.005               0                 Open   ;
 P69                  J123                 J79                           552.65             200           0.005               0                 Open   ;