; Filename: C:/Users/dmi002/Desktop/Python WIP/thesis_project/Dili_main.inp
; WNTR: 0.3.0
; Created: 2021-01-21 17:18:13
[TITLE]

[JUNCTIONS]
;ID                      Elevation       Demand Pattern                 
 J1                                20            3600 ResetDemandJ1              ;
 J2                                20            3600 ResetDemandJ2              ;
 J3                                20            3600 ResetDemandJ3              ;
 J4                                30            3600 ResetDemandJ4              ;
 J5                                10            3600 ResetDemandJ5              ;
 J6                                10            3600 ResetDemandJ6              ;
 J7                                10            3600 ResetDemandJ7              ;
 J8                                10            3600 ResetDemandJ8              ;
 J9                                10            3600 ResetDemandJ9              ;
 J10                               10            3600 ResetDemandJ10             ;
 J11                               10            3600 ResetDemandJ11             ;
 J12                               10            3600 ResetDemandJ12             ;
 J13                               20            3600 ResetDemandJ13             ;
 J14                               10            3600 ResetDemandJ14             ;
 J15                               10            3600 ResetDemandJ15             ;
 J16                               10            3600 ResetDemandJ16             ;
 J17                               10            3600 ResetDemandJ17             ;
 J18                               10            3600 ResetDemandJ18             ;
 J19                               10            3600 ResetDemandJ19             ;
 J20                               10            3600 ResetDemandJ20             ;
 J21                               10            3600 ResetDemandJ21             ;
 J22                               10            3600 ResetDemandJ22             ;
 J23                               10            3600 ResetDemandJ23             ;
 J24                               20            3600 ResetDemandJ24             ;
 J25                               30            3600 ResetDemandJ25             ;
 J26                               40            3600 ResetDemandJ26             ;
 J27                               40            3600 ResetDemandJ27             ;
 J28                               40            3600 ResetDemandJ28             ;
 J29                               20            3600 ResetDemandJ29             ;
 J30                               10            3600 ResetDemandJ30             ;
 J31                               10            3600 ResetDemandJ31             ;
 J32                               20            3600 ResetDemandJ32             ;
 J33                               30            3600 ResetDemandJ33             ;
 J34                               20            3600 ResetDemandJ34             ;
 J35                               70            3600 ResetDemandJ35             ;
 J36                               60            3600 ResetDemandJ36             ;
 J37                               50            3600 ResetDemandJ37             ;
 J39                               60            3600 ResetDemandJ39             ;
 J40                               10            3600 ResetDemandJ40             ;
 J41                               30            3600 ResetDemandJ41             ;
 J42                               20            3600 ResetDemandJ42             ;
 J43                               10            3600 ResetDemandJ43             ;
 J44                               10            3600 ResetDemandJ44             ;
 J45                               20            3600 ResetDemandJ45             ;
 J46                               10            3600 ResetDemandJ46             ;
 J47                               10            3600 ResetDemandJ47             ;
 J48                               10            3600 ResetDemandJ48             ;
 J49                               20            3600 ResetDemandJ49             ;
 J50                               30            3600 ResetDemandJ50             ;
 J51                               20            3600 ResetDemandJ51             ;
 J52                               30            3600 ResetDemandJ52             ;
 J53                               50            3600 ResetDemandJ53             ;
 J54                               60            3600 ResetDemandJ54             ;
 J55                               60            3600 ResetDemandJ55             ;
 J56                               50            3600 ResetDemandJ56             ;
 J57                               60            3600 ResetDemandJ57             ;
 J58                               10            3600 ResetDemandJ58             ;
 J59                               30            3600 ResetDemandJ59             ;
 J60                               20            3600 ResetDemandJ60             ;
 J61                               10            3600 ResetDemandJ61             ;
 AIRPORT                           10            3600 ResetDemandAIRPORT         ;
 J62                               10            3600 ResetDemandJ62             ;
 J63                               10            3600 ResetDemandJ63             ;
 J64                               10            3600 ResetDemandJ64             ;
 J74                               20            3600 ResetDemandJ74             ;
 J75                               30            3600 ResetDemandJ75             ;
 J76                               20            3600 ResetDemandJ76             ;
 J77                               30            3600 ResetDemandJ77             ;
 J78                               40            3600 ResetDemandJ78             ;
 J79                               10            3600 ResetDemandJ79             ;
 J80                               20            3600 ResetDemandJ80             ;
 J81                               30            3600 ResetDemandJ81             ;
 J82                               40            3600 ResetDemandJ82             ;
 J83                               10            3600 ResetDemandJ83             ;
 J84                               10            3600 ResetDemandJ84             ;
 J85                               10            3600 ResetDemandJ85             ;
 J86                               10            3600 ResetDemandJ86             ;
 J100                              10            3600 ResetDemandJ100            ;
 J101                              40            3600 ResetDemandJ101            ;
 J102                              40            3600 ResetDemandJ102            ;
 UNITAL                            40            3600 ResetDemandUNITAL          ;
 J103                              10            3600 ResetDemandJ103            ;
 PELICAN                           10            3600 ResetDemandPELICAN         ;
 J104                              10            3600 ResetDemandJ104            ;
 J108                              60            3600 ResetDemandJ108            ;
 J109                              40            3600 ResetDemandJ109            ;
 J110                              30            3600 ResetDemandJ110            ;
 J111                              30            3600 ResetDemandJ111            ;
 J112                              20            3600 ResetDemandJ112            ;
 J113                              20            3600 ResetDemandJ113            ;
 J114                              20            3600 ResetDemandJ114            ;
 J115                              20            3600 ResetDemandJ115            ;
 J116                              10            3600 ResetDemandJ116            ;
 J117                              20            3600 ResetDemandJ117            ;
 J118                              20            3600 ResetDemandJ118            ;
 J119                              30            3600 ResetDemandJ119            ;
 J120                              30            3600 ResetDemandJ120            ;
 J121                              30            3600 ResetDemandJ121            ;
 J122                              10            3600 ResetDemandJ122            ;
 J123                              10            3600 ResetDemandJ123            ;
 J124                              10            3600 ResetDemandJ124            ;
 J125                              50            3600 ResetDemandJ125            ;
 J126                              60            3600 ResetDemandJ126            ;
 J127                              10            3600 ResetDemandJ127            ;
 J128                              10            3600 ResetDemandJ128            ;
 J129                              10            3600 ResetDemandJ129            ;
 J130                              10            3600 ResetDemandJ130            ;
 J134                              40            3600 ResetDemandJ134            ;
 J135                              40            3600 ResetDemandJ135            ;
 J136                              30            3600 ResetDemandJ136            ;
 J137                              60            3600 ResetDemandJ137            ;
 J138                              20            3600 ResetDemandJ138            ;
 IPDC                              40            3600 ResetDemandIPDC            ;
 HOSPITAL_N                        10            3600 ResetDemandHOSPITAL_N      ;
 UNTL+AGP                          10            3600 ResetDemandUNTL+AGP        ;
 DIT                               30            3600 ResetDemandDIT             ;
 UNPAZ                             30            3600 ResetDemandUNPAZ           ;
 IOB                               30            3600 ResetDemandIOB             ;
 ICR                               30            3600 ResetDemandICR             ;
 ISC                               10            3600 ResetDemandISC             ;
 J140                              50            3600 ResetDemandJ140            ;
 J142                              40            3600 ResetDemandJ142            ;
 J143                              40            3600 ResetDemandJ143            ;
 J144                              40            3600 ResetDemandJ144            ;
 J145                              40            3600 ResetDemandJ145            ;
 J146                              10            3600 ResetDemandJ146            ;
 J147                              20            3600 ResetDemandJ147            ;
 J148                              30            3600 ResetDemandJ148            ;
 J149                              30            3600 ResetDemandJ149            ;
 J150                              30            3600 ResetDemandJ150            ;
 J151                              30            3600 ResetDemandJ151            ;
 J152                              40            3600 ResetDemandJ152            ;
 J153                              40            3600 ResetDemandJ153            ;
 J154                              40            3600 ResetDemandJ154            ;
 J155                              40            3600 ResetDemandJ155            ;
 J156                              40            3600 ResetDemandJ156            ;
 J157                              40            3600 ResetDemandJ157            ;
 J158                              10            3600 ResetDemandJ158            ;
 J159                              10            3600 ResetDemandJ159            ;
 J160                              10            3600 ResetDemandJ160            ;
 J161                              10            3600 ResetDemandJ161            ;
 J162                              10            3600 ResetDemandJ162            ;
 J163                              40            3600 ResetDemandJ163            ;
 J164                              40            3600 ResetDemandJ164            ;
 J165                              10            3600 ResetDemandJ165            ;
 J166                              10            3600 ResetDemandJ166            ;
 J167                              20            3600 ResetDemandJ167            ;
 J168                              20            3600 ResetDemandJ168            ;
 J169                              20            3600 ResetDemandJ169            ;
 J170                              30            3600 ResetDemandJ170            ;
 J171                              30            3600 ResetDemandJ171            ;
 J172                              40            3600 ResetDemandJ172            ;
 J173                              40            3600 ResetDemandJ173            ;
 J174                              40            3600 ResetDemandJ174            ;
 J175                              40            3600 ResetDemandJ175            ;
 J178                              20            3600 ResetDemandJ178            ;
 R_CENTRAL                         66            3600 ResetDemandR_CENTRAL       ;
 R_LAHANE                          51            3600 ResetDemandR_LAHANE        ;
 R_BECUSSI                         61            3600 ResetDemandR_BECUSSI       ;
 R_BEMOS                           90            3600 ResetDemandR_BEMOS         ;
 R_GOLGOTA                         60            3600 ResetDemandR_GOLGOTA       ;
 J179                              50            3600 ResetDemandJ179            ;
 R_MALINAMUK                       67            3600 ResetDemandR_MALINAMUK     ;
 R_CRISTAL                         50            3600 ResetDemandR_CRISTAL       ;
 R_ALOIK_2                         60        724.4285 1                          ;
 ETA_COMORO_2                     100            3600 ResetDemandETA_COMORO_2    ;
 J180                              90            3600 ResetDemandJ180            ;
 J181                              60            3600 ResetDemandJ181            ;
 J182                              40            3600 ResetDemandJ182            ;
 J183                              66            3600 ResetDemandJ183            ;
 J184                              20            3600 ResetDemandJ184            ;
 J185                              20            3600 ResetDemandJ185            ;
 J186                              50            3600 ResetDemandJ186            ;
 J187                              60            3600 ResetDemandJ187            ;
 J188                              40            3600 ResetDemandJ188            ;
 J189                              40            3600 ResetDemandJ189            ;
 J190                              61            3600 ResetDemandJ190            ;
 J191                              60            3600 ResetDemandJ191            ;
 J193                              60            3600 ResetDemandJ193            ;
 J194                              40            3600 ResetDemandJ194            ;
 J195                              50            3600 ResetDemandJ195            ;
 J196                              30            3600 ResetDemandJ196            ;
 J197                              60            3600 ResetDemandJ197            ;
 J198                              67            3600 ResetDemandJ198            ;
 J201                              30            3600 ResetDemandJ201            ;
 J202                              10            3600 ResetDemandJ202            ;
 J203                              40            3600 ResetDemandJ203            ;
 J204                              20            3600 ResetDemandJ204            ;
 pump2                              0          1.5864 1                          ;
 pump3                             40            3600 ResetDemandpump3           ;
 4                                 40         20.5108 1                          ;
 1                                100               0 1                          ;

[RESERVOIRS]
;ID                                   Head                  Pattern
 ETA__COMORO                      100                            ;

[TANKS]
;ID                              Elevation           Init Level            Min Level            Max Level             Diameter           Min Volume Volume Curve         Overflow            
 Balancing_tank          111.31620789    2.1551361084               0           10000    55.925815309               0                                             ;

[PIPES]
;ID                   Node1                Node2                              Length             Diameter            Roughness           Minor Loss               Status
 P1                   J35                  J36                           666.81           110.2             0.5               0                 Open   ;
 P2                   J35                  J126                          732.94            96.8             0.5               0                 Open   ;
 P3                   J126                 J125                          551.25            79.2             0.5               0                 Open   ;
 P4                   J125                 J27                           589.36            54.9             0.5               0                 Open   ;
 P5                   J27                  J82                           107.87            54.9             0.5               0                 Open   ;
 P6                   J37                  J36                           837.79           176.2             0.5               0                 Open   ;
 P7                   J157                 J39                           846.66           176.2             0.5               0                 Open   ;
 P9                   J26                  J81                            593.2           110.2             0.5               0                 Open   ;
 P10                  J28                  J33                           378.78              66             0.5               0                 Open   ;
 P11                  J81                  J121                          400.61            96.8           0.005               0                 Open   ;
 P12                  J3                   J59                           747.45           312.8             0.5               0                 Open   ;
 P13                  J59                  J4                            610.31           220.4             0.5               0                 Open   ;
 P14                  J59                  J60                           872.11           176.2           0.005               0                 Open   ;
 P15                  J3                   J2                            967.37           277.6             0.5               0                 Open   ;
 P16                  J2                   J60                           961.61            54.9             0.5               0                 Open   ;
 P17                  J2                   AIRPORT                       376.92           198.2           0.005               0                 Open   ;
 P18                  J61                  J60                            977.7             141           0.005               0                 Open   ;
 P19                  J61                  AIRPORT                       979.49            54.9             0.5               0                 Open   ;
 P20                  AIRPORT              J63                            870.9            96.8           0.005               0                 Open   ;
 P21                  J63                  J62                           231.53             141           0.005               0                 Open   ;
 P22                  J5                   J64                            812.9           312.8           0.005               0                 Open   ;
 P23                  PELICAN              J104                         1358.02            96.8           0.005               0                 Open   ;
 P34                  J62                  J2                            802.01           176.2           0.005               0                 Open   ;
 P35                  J1                   J16                           898.05            96.8             0.5               0                 Open   ;
 P36                  J16                  J10                           276.61           123.4             0.5               0                 Open   ;
 P37                  J16                  J12                           679.18           176.2             0.5               0                 Open   ;
 P38                  J12                  J13                           672.53           176.2             0.5               0                 Open   ;
 P39                  J1                   J13                           674.91           176.2             0.5               0                 Open   ;
 P40                  J13                  J6                             554.7           198.2             0.5               0                 Open   ;
 P41                  J6                   J30                           527.23           176.2             0.5               0                 Open   ;
 P42                  J6                   J17                           583.01              66             0.5               0                 Open   ;
 P43                  J12                  J17                           649.61           198.2             0.5               0                 Open   ;
 P44                  J11                  J12                           479.64            54.9             0.5               0                 Open   ;
 P45                  J11                  J9                            590.92           176.2             0.5               0                 Open   ;
 P46                  J17                  J9                            325.48           110.2             0.5               0                 Open   ;
 P47                  J30                  J7                            573.88            54.9             0.5               0                 Open   ;
 P48                  J7                   J18                           449.92           220.4             0.5               0                 Open   ;
 P49                  J9                   J8                            910.77           176.2             0.5               0                 Open   ;
 P50                  J8                   J18                           191.46           198.2             0.5               0                 Open   ;
 P51                  J34                  J120                          454.51            54.9             0.5               0                 Open   ;
 P52                  J34                  J24                           425.98           220.4             0.5               0                 Open   ;
 P53                  J33                  J25                           754.47           176.2             0.5               0                 Open   ;
 P54                  J119                 J24                           312.86           176.2             0.5               0                 Open   ;
 P55                  J6                   J24                           695.73           198.2             0.5               0                 Open   ;
 P56                  J24                  J29                           665.66           277.6             0.5               0                 Open   ;
 P57                  J25                  J32                           786.46           277.6             0.5               0                 Open   ;
 P58                  J32                  J118                          296.06             450             0.5               0                 Open   ;
 P59                  J29                  J118                          258.95             400             0.5               0                 Open   ;
 P60                  J29                  J122                          353.67           312.8             0.5               0                 Open   ;
 P61                  J122                 J30                           339.78           312.8             0.5               0                 Open   ;
 P62                  J29                  J31                           493.75            54.9             0.5               0                 Open   ;
 P63                  J32                  J117                          342.19             500             0.5               0                 Open   ;
 P64                  J117                 J116                          379.31             450             0.5               0                 Open   ;
 P65                  J31                  J23                           190.09           277.6             0.5               0                 Open   ;
 P66                  J116                 J23                           139.14             400             0.5               0                 Open   ;
 P67                  J23                  J79                           401.98           277.6             0.5               0                 Open   ;
 P68                  J7                   J123                          408.47            54.9             0.5               0                 Open   ;
 P69                  J123                 J79                           552.65           220.4             0.5               0                 Open   ;
 P70                  J8                   J14                            833.1            54.9             0.5               0                 Open   ;
 P71                  J14                  J15                           629.24             141             0.5               0                 Open   ;
 P72                  J123                 J15                           365.17           198.2             0.5               0                 Open   ;
 P73                  J79                  J80                           417.85            54.9             0.5               0                 Open   ;
 P74                  J23                  J80                           492.33           110.2             0.5               0                 Open   ;
 P75                  J15                  J127                          423.73            54.9             0.5               0                 Open   ;
 P76                  J17                  J128                          390.88           220.4             0.5               0                 Open   ;
 P77                  J128                 J18                            541.9            54.9             0.5               0                 Open   ;
 P78                  J128                 J30                           452.88           277.6             0.5               0                 Open   ;
 P79                  J127                 J162                          382.15           110.2             0.5               0                 Open   ;
 P80                  J20                  J40                           825.23           312.8             0.5               0                 Open   ;
 P81                  J19                  J22                           524.52            54.9             0.5               0                 Open   ;
 P82                  J22                  J21                           365.95             141             0.5               0                 Open   ;
 P83                  J21                  J100                          453.04             125             0.5               0                 Open   ;
 P84                  J100                 J41                           621.54           176.2             0.5               0                 Open   ;
 P85                  J42                  J101                          552.26             355             0.5               0                 Open   ;
 P86                  J41                  J74                           416.78             700             0.5               0                 Open   ;
 P87                  J21                  J44                           750.03           220.4             0.5               0                 Open   ;
 P88                  J22                  J43                            641.1             141             0.5               0                 Open   ;
 P89                  J43                  J44                           605.09              63             0.5               0                 Open   ;
 P90                  J44                  J46                           529.07           176.2             0.5               0                 Open   ;
 P91                  J74                  J45                           524.84             700             0.5               0                 Open   ;
 P92                  J44                  J103                          328.23             200             0.5               0                 Open   ;
 P93                  J103                 J45                           443.19             200             0.5               0                 Open   ;
 P94                  J45                  J51                            478.6             160             0.5               0                 Open   ;
 P95                  J46                  J51                           382.77             200             0.5               0                 Open   ;
 P96                  J51                  J76                           276.37           123.4           0.005               0                 Open   ;
 P97                  J45                  J75                           609.15             141           0.005               0                 Open   ;