[TITLE]


[JUNCTIONS]
;ID              	Elev        	Demand      	Pattern         
 J1              	20          	19.8725     	1               	;				
 J2              	20          	33.31041667 	1               	;				
 J3              	20          	24.44416667 	1               	;				
 J4              	30          	16.33125    	1               	;				
 J5              	10          	11.37166667 	1               	;				
 J6              	10          	33.30083333 	1               	;				
 J7              	10          	20.28083333 	1               	;				
 J8              	10          	10.66875    	1               	;				
 J9              	10          	10.89666667 	1               	;				
 J10             	10          	21.35208333 	1               	;				
 J11             	10          	19.69166667 	1               	;				
 J12             	10          	39.03458333 	1               	;				
 J13             	20          	38.01       	1               	;				
 J14             	10          	22.8425     	1               	;				
 J15             	10          	28.11625    	1               	;				
 J16             	10          	40.91166667 	1               	;				
 J17             	10          	23.73625    	1               	;				
 J18             	10          	20.43333333 	1               	;				
 J19             	10          	1.168333333 	1               	;				
 J20             	10          	6.677916667 	1               	;				
 J21             	10          	4.460833333 	1               	;				
 J22             	10          	2.46875     	1               	;				
 J23             	10          	10.2175     	1               	;				
 J24             	20          	26.08666667 	1               	;				
 J25             	30          	8.32        	1               	;				
 J26             	40          	4.697916667 	1               	;				
 J27             	40          	2.160416667 	1               	;				
 J28             	40          	3.119166667 	1               	;				
 J29             	20          	20.06541667 	1               	;				
 J30             	10          	22.83208333 	1               	;				
 J31             	10          	14.34791667 	1               	;				
 J32             	20          	40.71916667 	1               	;				
 J33             	30          	8.093333333 	1               	;				
 J34             	20          	19.94333333 	1               	;				
 J35             	70          	2.848333333 	1               	;				
 J36             	60          	33.41958333 	1               	;				
 J37             	50          	29.88833333 	1               	;				
 J38             	100         	13.39833333 	1               	;				
 J39             	60          	36.26625    	1               	;				
 J40             	10          	15.585      	1               	;				
 J41             	30          	12.53541667 	1               	;				
 J42             	20          	13.43833333 	1               	;				
 J43             	10          	13.12916667 	1               	;				
 J44             	10          	16.06541667 	1               	;				
 J45             	20          	23.7725     	1               	;				
 J46             	10          	14.13583333 	1               	;				
 J47             	10          	13.1775     	1               	;				
 J48             	10          	13.87333333 	1               	;				
 J49             	20          	21.25333333 	1               	;				
 J50             	30          	19.65833333 	1               	;				
 J51             	20          	13.28083333 	1               	;				
 J52             	30          	9.165       	1               	;				
 J53             	50          	22.04583333 	1               	;				
 J54             	60          	21.06208333 	1               	;				
 J55             	70          	15.16875    	1               	;				
 J56             	50          	24.90875    	1               	;				
 J57             	60          	33.49333333 	1               	;				
 J58             	10          	11.8825     	1               	;				
 J59             	30          	26.08791667 	1               	;				
 J60             	20          	23.15458333 	1               	;				
 J61             	10          	30.34666667 	1               	;				
 AIRPORT         	10          	50.37083333 	1               	;				
 J62             	10          	15.99041667 	1               	;				
 J63             	10          	26.01125    	1               	;				
 J64             	10          	45.45083333 	1               	;				
 J65             	10          	22.50916667 	1               	;				
 J66             	30          	29.86375    	1               	;				
 J67             	10          	13.44041667 	1               	;				
 J68             	80          	63.2375     	1               	;				
 J69             	120         	0.289583333 	1               	;				
 J70             	10          	15.005      	1               	;				
 J71             	10          	21.39333333 	1               	;				
 J72             	30          	23.53958333 	1               	;				
 J73             	30          	26.86375    	1               	;				
 J74             	20          	26.46791667 	1               	;				
 J75             	30          	18.91       	1               	;				
 J76             	20          	15.18333333 	1               	;				
 J77             	30          	10.17958333 	1               	;				
 J78             	40          	26.42416667 	1               	;				
 J79             	10          	29.41708333 	1               	;				
 J80             	20          	20.81208333 	1               	;				
 J81             	30          	9.937083333 	1               	;				
 J82             	40          	1.0225      	1               	;				
 J83             	10          	15.08083333 	1               	;				
 J84             	10          	11.28083333 	1               	;				
 J85             	10          	18.89708333 	1               	;				
 J86             	10          	31.07041667 	1               	;				
 J87             	60          	43.3125     	1               	;				
 HEINEKEN        	20          	64.24       	1               	;				
 J88             	10          	15.4        	1               	;				
 UNI_HERA_1      	40          	98.29166667 	1               	;				
 J89             	10          	24.30708333 	1               	;				
 J90             	10          	5.807916667 	1               	;				
 J91             	30          	12.8375     	1               	;				
 J92             	30          	21.50333333 	1               	;				
 J93             	10          	15.17791667 	1               	;				
 J94             	20          	21.6525     	1               	;				
 J95             	30          	41.80625    	1               	;				
 J96             	20          	34.57875    	1               	;				
 J97             	20          	23.55791667 	1               	;				
 J98             	20          	12.35125    	1               	;				
 J99             	20          	18.02833333 	1               	;				
 UNI_HERA_2      	40          	106.36125   	1               	;				
 PACIFIC_RE      	10          	21.27625    	1               	;				
 J100            	10          	35.65583333 	1               	;				
 J101            	40          	110.1229167 	1               	;				
 J102            	40          	83.46875    	1               	;				
 UNITAL          	40          	18.48666667 	1               	;				
 J103            	10          	24.34666667 	1               	;				
 PELICAN         	10          	133.3041667 	1               	;				
 J104            	10          	9.066666667 	1               	;				
 J105            	100         	1.380416667 	1               	;				
 J106            	80          	5.245833333 	1               	;				
 J107            	70          	28.70333333 	1               	;				
 J108            	60          	26.73458333 	1               	;				
 J109            	40          	25.60166667 	1               	;				
 J110            	30          	24.29666667 	1               	;				
 J111            	30          	22.24208333 	1               	;				
 J112            	20          	6.764583333 	1               	;				
 J113            	20          	8.139583333 	1               	;				
 J114            	20          	12.08958333 	1               	;				
 J115            	20          	20.83916667 	1               	;				
 J116            	10          	8.68        	1               	;				
 J117            	20          	22.12208333 	1               	;				
 J118            	20          	18.89666667 	1               	;				
 J119            	30          	16.94458333 	1               	;				
 J120            	30          	13.83416667 	1               	;				
 J121            	30          	7.880833333 	1               	;				
 J122            	10          	24.27458333 	1               	;				
 J123            	10          	25.60458333 	1               	;				
 J124            	10          	19.77166667 	1               	;				
 J125            	50          	3.384166667 	1               	;				
 J126            	60          	4.39        	1               	;				
 J127            	10          	16.70041667 	1               	;				
 J128            	10          	23.55833333 	1               	;				
 J129            	10          	18.35916667 	1               	;				
 J130            	10          	12.52416667 	1               	;				
 J131            	10          	4.148333333 	1               	;				
 J132            	50          	72.78958333 	1               	;				
 J133            	40          	32.99583333 	1               	;				
 J134            	40          	2.154166667 	1               	;				
 J135            	40          	1.495       	1               	;				
 R_MALOA         	110         	0.63        	1               	;				
 J136            	30          	0           	1               	;				
 R_BENAMAUK      	103         	2.42125     	1               	;				
 J137            	70          	9.616666667 	1               	;				
 J138            	20          	33.33583333 	1               	;				
 J139            	80          	19.54291667 	1               	;				
 TIBAR_PORT      	10          	20.69958333 	1               	;				
 IPDC            	40          	4.76375     	1               	;				
 HOSPITAL_N      	10          	12.67       	1               	;				
 UNTL+AGP        	10          	44.31541667 	1               	;				
 DIT             	30          	14.66291667 	1               	;				
 UNPAZ           	30          	19.17958333 	1               	;				
 IOB             	30          	14.90125    	1               	;				
 ICR             	30          	7.210416667 	1               	;				
 ISC             	10          	29.56291667 	1               	;				
 CROCODILE_      	10          	17.64541667 	1               	;				
 PORT            	10          	16.35875    	1               	;				
 J140            	50          	27.59416667 	1               	;				
 J141            	80          	4.43        	1               	;				
 J142            	40          	2.090416667 	1               	;				
 J143            	40          	4.19625     	1               	;				
 J144            	40          	0.481666667 	1               	;				
 J145            	40          	7.160416667 	1               	;				
 J146            	10          	5.63625     	1               	;				
 J147            	20          	15.11458333 	1               	;				
 J148            	30          	7.427916667 	1               	;				
 J149            	30          	12.36833333 	1               	;				
 J150            	30          	2.715416667 	1               	;				
 J151            	30          	3.76625     	1               	;				
 J152            	40          	1.55        	1               	;				
 J153            	40          	0.69375     	1               	;				
 J154            	40          	7.082083333 	1               	;				
 J155            	40          	1.090416667 	1               	;				
 J156            	40          	1.651666667 	1               	;				
 J157            	40          	26.255      	1               	;				
 J158            	10          	3.196666667 	1               	;				
 J159            	10          	0.069583333 	1               	;				
 J160            	10          	0.48        	1               	;				
 J161            	10          	1.057083333 	1               	;				
 J162            	10          	22.89791667 	1               	;				
 J163            	40          	0.012       	1               	;				
 J164            	40          	17.765      	1               	;				
 J165            	10          	7.577916667 	1               	;				
 J166            	10          	4           	1               	;				
 J167            	20          	11.42625    	1               	;				
 J168            	20          	4.59875     	1               	;				
 J169            	20          	8.674583333 	1               	;				
 J170            	30          	3.312916667 	1               	;				
 J171            	30          	3.644166667 	1               	;				
 J172            	40          	58.53583333 	1               	;				
 J173            	40          	3.59        	1               	;				
 J174            	40          	2.179166667 	1               	;				
 J175            	40          	21.62541667 	1               	;				
 J176            	80          	4.286666667 	1               	;				
 J177            	80          	39.19916667 	1               	;				
 J178            	20          	0           	1               	;				
 R_CENTRAL       	66          	0           	1               	;				
 R_LAHANE        	51          	0           	1               	;				
 R_BECUSSI       	61          	0           	1               	;				
 R_BEMOS         	90          	0           	1               	;				
 R_GOLGOTA       	60          	0           	1               	;				
 J179            	50          	15.835      	1               	;				
 R_MALINAMUK     	67          	0           	1               	;				
 R_CULAU         	100         	0           	1               	;				
 R_CRISTAL       	50          	0           	1               	;				
 R_HERA_2        	280         	0           	1               	;				
 R_TIBAR_2       	320         	0           	1               	;				
 R_TIBAR_3       	160         	0           	1               	;				
 R_TIBAR_4       	160         	0           	1               	;				
 R_ALOIK_2       	60          	0           	1               	;				
 R_HERA_1        	270         	0           	1               	;				
 ETA_COMORO      	100         	0           	1               	;				
 R_TIBAR_1       	320         	0           	1               	;				
 ETA_COMORO_2    	100         	0           	1               	;				
 J180            	90          	0           	1               	;				
 J181            	60          	0           	1               	;				
 J182            	40          	0           	1               	;				
 J183            	66          	0           	1               	;				
 J184            	20          	0           	1               	;				
 J185            	20          	0           	1               	;				
 J186            	50          	0           	1               	;				
 J187            	60          	0           	1               	;				
 J188            	40          	0           	1               	;				
 J189            	40          	0           	1               	;				
 J190            	61          	0           	1               	;				
 J191            	60          	0           	1               	;				
 J192            	100         	0           	1               	;				
 J193            	60          	0           	1               	;				
 J194            	40          	0           	1               	;				
 J195            	50          	0           	1               	;				
 J196            	30          	0           	1               	;				
 J197            	60          	0           	1               	;				
 J198            	67          	0           	1               	;				
 J201            	30          	24.27166667 	1               	;				
 J202            	10          	5.26        	1               	;				
 J203            	40          	6.58875     	1               	;				
 J204            	20          	4.910416667 	1               	;				
 1               	60          	0           	1               	;				
 2               	67          	0           	1               	;				
 3               	95          	0           	1               	;				
 4               	120         	0           	1               	;				
 5               	66          	0           	1               	;				
 6               	95          	0           	1               	;				
 7               	66          	0           	1               	;				
 8               	50          	0           	1               	;				
 9               	51          	0           	1               	;				
 10              	61          	0           	1               	;				
 11              	100         	0           	1               	;				
 12              	103         	0           	1               	;				
 13              	140         	0           	1               	;				
 14              	95          	0           	1               	;				
 15              	66          	0           	1               	;				
 16              	120         	0           	1               	;				
 prv1            	60          	0           	                	;
 prv2            	80          	0           	                	;
 prv3            	30          	0           	                	;
 pump1           	30          	0           	                	;
 pump2           	0           	0           	                	;
 pump3           	40          	0           	                	;

[RESERVOIRS]
;ID              	Head        	Pattern         
 ETA__BENAMAUK   	140         	                	;					
 ETA__CENTRAL    	80          	                	;					
 ETA__BEMOS      	120         	                	;					
 ETA__COMORO     	200         	                	;					
 ETA_MALOA       	300         	                	;					

[TANKS]
;ID              	Elevation   	InitLevel   	MinLevel    	MaxLevel    	Diameter    	MinVol      	VolCurve
 R__BEMOS        	95          	2.5         	0           	5           	24.201      	0           	                	;
 R__MALINAMUK    	67          	1.8         	0           	3.6         	40.771      	0           	                	;
 R__GOLGOTA      	60          	2.5         	0           	5           	24.201      	0           	                	;
 R__CENTRAL      	66          	2.5         	0           	5           	55.925      	0           	                	;
 R__MALOA        	120         	2.5         	0           	5           	16.429      	0           	                	;
 R__CRISTAL      	50          	2.5         	0           	5           	40.053      	0           	                	;
 R__LAHANE       	51          	1           	0           	5           	18.806      	0           	                	;
 R__BECUSI       	61          	1.5         	0           	3           	35.682      	0           	                	;
 R__CULAU        	100         	2.5         	0           	5           	21.996      	0           	                	;
 R__BENAMAUK     	103         	1           	0           	2.45        	17.658      	0           	                	;
 T_LHS_MAIN      	338.09406853	2.1419086456	0           	1000        	16.003134427	0           	                	;
 T_RHS_Main      	298.09998894	2.2073554993	0           	1000        	27.164426035	0           	                	;
 T_LHS_MINOR     	98.096019745	2.2681045532	0           	1000        	8.025756959 	0           	                	;
 T_UPPER_MAIN    	78.098962784	2.3854541779	0           	1000        	4.5707818328	0           	                	;
 T_UPPER_MINOR   	118.09677124	2.3145961761	0           	1000        	1.2719065746	0           	                	;

[PIPES]
;ID              	Node1           	Node2           	Length      	Diameter    	Roughness   	MinorLoss   	Status
 P1              	J35             	J36             	666.81      	110.2       	0.005       	0           	Open  	;
 P2              	J35             	J126            	732.94      	96.8        	0.005       	0           	Open  	;
 P3              	J126            	J125            	551.25      	79.2        	0.005       	0           	Open  	;
 P4              	J125            	J27             	589.36      	54.9        	0.005       	0           	Open  	;
 P5              	J27             	J82             	107.87      	54.9        	0.005       	0           	Open  	;
 P6              	J37             	J36             	837.79      	176.2       	0.005       	0           	Open  	;
 P7              	J157            	J39             	846.66      	176.2       	0.005       	0           	Open  	;
 P8              	pump2           	J38             	812.93      	110.2       	0.005       	0           	Open  	;
 P9              	J26             	J81             	593.2       	110.2       	0.005       	0           	Open  	;
 P10             	J28             	J33             	378.78      	66          	0.005       	0           	Open  	;
 P11             	J81             	J121            	400.61      	96.8        	0.005       	0           	Open  	;
 P12             	J3              	J59             	747.45      	312.8       	0.005       	0           	Open  	;
 P13             	J59             	J4              	610.31      	220.4       	0.005       	0           	Open  	;
 P14             	J59             	J60             	872.11      	176.2       	0.005       	0           	Open  	;
 P15             	J3              	J2              	967.37      	277.6       	0.005       	0           	Open  	;
 P16             	J2              	J60             	961.61      	54.9        	0.005       	0           	Open  	;
 P17             	J2              	AIRPORT         	376.92      	198.2       	0.005       	0           	Open  	;
 P18             	J61             	J60             	977.7       	141         	0.005       	0           	Open  	;
 P19             	J61             	AIRPORT         	979.49      	54.9        	0.005       	0           	Open  	;
 P20             	AIRPORT         	J63             	870.9       	96.8        	0.005       	0           	Open  	;
 P21             	J63             	J62             	231.53      	141         	0.005       	0           	Open  	;
 P22             	J5              	J64             	812.9       	312.8       	0.005       	0           	Open  	;
 P23             	PELICAN         	J104            	1358.02     	96.8        	0.005       	0           	Open  	;
 P24             	J65             	J70             	378.43      	54.9        	0.005       	0           	Open  	;
 P25             	J70             	J67             	894.02      	54.9        	0.005       	0           	Open  	;
 P26             	J67             	J66             	1028.22     	176.2       	0.005       	0           	Open  	;
 P27             	J70             	J71             	622.86      	110.2       	0.005       	0           	Open  	;
 P28             	J71             	J66             	793.82      	54.9        	0.005       	0           	Open  	;
 P29             	J65             	J71             	733.42      	123.4       	0.005       	0           	Open  	;
 P30             	J71             	J72             	903.77      	198.2       	0.005       	0           	Open  	;
 P31             	J72             	J73             	574.11      	220.4       	0.005       	0           	Open  	;
 P32             	J66             	J73             	814.97      	277.6       	0.005       	0           	Open  	;
 P33             	pump1           	J68             	1748.82     	198.2       	0.5         	0           	Open  	;
 P34             	J62             	J2              	802.01      	176.2       	0.005       	0           	Open  	;
 P35             	J1              	J16             	898.05      	96.8        	0.005       	0           	Open  	;
 P36             	J16             	J10             	276.61      	123.4       	0.005       	0           	Open  	;
 P37             	J16             	J12             	679.18      	176.2       	0.005       	0           	Open  	;
 P38             	J12             	J13             	672.53      	176.2       	0.005       	0           	Open  	;
 P39             	J1              	J13             	674.91      	176.2       	0.005       	0           	Open  	;
 P40             	J13             	J6              	554.7       	198.2       	0.005       	0           	Open  	;
 P41             	J6              	J30             	527.23      	176.2       	0.005       	0           	Open  	;
 P42             	J6              	J17             	583.01      	66          	0.005       	0           	Open  	;
 P43             	J12             	J17             	649.61      	198.2       	0.005       	0           	Open  	;
 P44             	J11             	J12             	479.64      	54.9        	0.005       	0           	Open  	;
 P45             	J11             	J9              	590.92      	176.2       	0.005       	0           	Open  	;
 P46             	J17             	J9              	325.48      	110.2       	0.005       	0           	Open  	;
 P47             	J30             	J7              	573.88      	54.9        	0.005       	0           	Open  	;
 P48             	J7              	J18             	449.92      	220.4       	0.005       	0           	Open  	;
 P49             	J9              	J8              	910.77      	176.2       	0.005       	0           	Open  	;
 P50             	J8              	J18             	191.46      	198.2       	0.005       	0           	Open  	;
 P51             	J34             	J120            	454.51      	54.9        	0.005       	0           	Open  	;
 P52             	J34             	J24             	425.98      	220.4       	0.005       	0           	Open  	;
 P53             	J33             	J25             	754.47      	176.2       	0.005       	0           	Open  	;
 P54             	J119            	J24             	312.86      	176.2       	0.005       	0           	Open  	;
 P55             	J6              	J24             	695.73      	198.2       	0.005       	0           	Open  	;
 P56             	J24             	J29             	665.66      	277.6       	0.005       	0           	Open  	;
 P57             	J25             	J32             	786.46      	277.6       	0.005       	0           	Open  	;
 P58             	J32             	J118            	296.06      	450         	0.5         	0           	Open  	;
 P59             	J29             	J118            	258.95      	400         	0.5         	0           	Open  	;
 P60             	J29             	J122            	353.67      	312.8       	0.005       	0           	Open  	;
 P61             	J122            	J30             	339.78      	312.8       	0.005       	0           	Open  	;
 P62             	J29             	J31             	493.75      	54.9        	0.005       	0           	Open  	;
 P63             	J32             	J117            	342.19      	500         	0.5         	0           	Open  	;
 P64             	J117            	J116            	379.31      	450         	0.5         	0           	Open  	;
 P65             	J31             	J23             	190.09      	277.6       	0.005       	0           	Open  	;
 P66             	J116            	J23             	139.14      	400         	0.5         	0           	Open  	;
 P67             	J23             	J79             	401.98      	277.6       	0.005       	0           	Open  	;
 P68             	J7              	J123            	408.47      	54.9        	0.005       	0           	Open  	;
 P69             	J123            	J79             	552.65      	220.4       	0.005       	0           	Open  	;
 P70             	J8              	J14             	833.1       	54.9        	0.005       	0           	Open  	;
 P71             	J14             	J15             	629.24      	141         	0.005       	0           	Open  	;
 P72             	J123            	J15             	365.17      	198.2       	0.005       	0           	Open  	;
 P73             	J79             	J80             	417.85      	54.9        	0.005       	0           	Open  	;
 P74             	J23             	J80             	492.33      	110.2       	0.005       	0           	Open  	;
 P75             	J15             	J127            	423.73      	54.9        	0.005       	0           	Open  	;
 P76             	J17             	J128            	390.88      	220.4       	0.005       	0           	Open  	;
 P77             	J128            	J18             	541.9       	54.9        	0.005       	0           	Open  	;
 P78             	J128            	J30             	452.88      	277.6       	0.005       	0           	Open  	;
 P79             	J127            	J162            	382.15      	110.2       	0.005       	0           	Open  	;
 P80             	J20             	J40             	825.23      	312.8       	0.005       	0           	Open  	;
 P81             	J19             	J22             	524.52      	54.9        	0.005       	0           	Open  	;
 P82             	J22             	J21             	365.95      	141         	0.005       	0           	Open  	;
 P83             	J21             	J100            	453.04      	54.9        	0.005       	0           	Open  	;
 P84             	J100            	J41             	621.54      	176.2       	0.005       	0           	Open  	;
 P85             	J42             	J101            	552.26      	198.2       	0.005       	0           	Open  	;
 P86             	J41             	J74             	416.78      	277.6       	0.005       	0           	Open  	;
 P87             	J21             	J44             	750.03      	220.4       	0.005       	0           	Open  	;
 P88             	J22             	J43             	641.1       	141         	0.005       	0           	Open  	;
 P89             	J43             	J44             	605.09      	54.9        	0.005       	0           	Open  	;