; Filename: Dili_RHS.inp
; WNTR: 0.3.0
; Created: 2021-02-09 14:47:14
[TITLE]

[JUNCTIONS]
;ID                      Elevation       Demand Pattern                 
 J87                               60         43.3125 1                          ;
 HEINEKEN                          20           64.24 1                          ;
 J88                               10            15.4 1                          ;
 UNI_HERA_1                        40     98.29166667 1                          ;
 J89                               10     24.30708333 1                          ;
 J90                               10     5.807916667 1                          ;
 J91                               30         12.8375 1                          ;
 J92                               30     21.50333333 1                          ;
 J93                               10     15.17791667 1                          ;
 J94                               20         21.6525 1                          ;
 J95                               30        41.80625 1                          ;
 J96                               20        34.57875 1                          ;
 J97                               20     23.55791667 1                          ;
 J98                               20        12.35125 1                          ;
 J99                               20     18.02833333 1                          ;
 UNI_HERA_2                        40       106.36125 1                          ;
 PACIFIC_RE                        10        21.27625 1                          ;
 J131                              10     4.148333333 1                          ;
 J132                              50     72.78958333 1                          ;
 J133                              40     32.99583333 1                          ;
 CROCODILE_                        10     17.64541667 1                          ;
 PORT                              10        16.35875 1                          ;
 R_HERA_2                         280               0 1                          ;
 R_ALOIK_2                         60               0 1                          ;
 R_HERA_1                         270               0 1                          ;
 prv1                              60               0 1                          ;

[RESERVOIRS]
;ID                                   Head                  Pattern
 17                               151                            ;

[TANKS]
;ID                              Elevation           Init Level            Min Level            Max Level             Diameter           Min Volume Volume Curve         Overflow            
 T_RHS_Main              298.09998894    2.2073554993               0            1000    27.164426035               0                                             ;

[PIPES]
;ID                   Node1                Node2                              Length             Diameter            Roughness           Minor Loss               Status
 P131                 J87                  UNI_HERA_1                   1688.26             500             0.5               0                 Open   ;
 P132                 UNI_HERA_1           UNI_HERA_2                    696.57             400             0.5               0                 Open   ;
 P133                 UNI_HERA_2           HEINEKEN                     1011.47             450             0.5               0                 Open   ;
 P134                 HEINEKEN             J99                            448.9             200           0.005               0                 Open   ;
 P135                 J99                  J89                           359.13             160           0.005               0                 Open   ;
 P136                 HEINEKEN             J98                           895.81             250           0.005               0                 Open   ;
 P137                 J98                  J90                            298.6             140           0.005               0                 Open   ;
 P138                 J90                  J131                          292.77             140           0.005               0                 Open   ;
 P139                 J131                 J93                           222.42             125           0.005               0                 Open   ;
 P140                 J93                  J96                           491.38              63           0.005               0                 Open   ;
 P141                 J96                  J91                           246.53             110           0.005               0                 Open   ;
 P142                 J91                  J95                           294.61             200           0.005               0                 Open   ;
 P143                 J95                  J94                           520.83             225           0.005               0                 Open   ;
 P144                 J98                  J94                           266.25             225           0.005               0                 Open   ;
 P145                 J94                  J97                           992.43              75           0.005               0                 Open   ;
 P146                 HEINEKEN             J97                           450.96             160           0.005               0                 Open   ;
 P147                 J97                  J92                           191.81              75           0.005               0                 Open   ;
 P148                 J92                  J133                         1001.38              63           0.005               0                 Open   ;
 P149                 UNI_HERA_2           J133                          228.43             140           0.005               0                 Open   ;
 P150                 J133                 J132                          974.01              63           0.005               0                 Open   ;
 P151                 UNI_HERA_1           J132                          251.18             250             0.5               0                 Open   ;
 P166                 J131                 J88                           918.75              90           0.005               0                 Open   ;
 P168                 R_HERA_2             prv1                         2451.61             315             0.5               0                 Open   ;
 P174                 R_ALOIK_2            R_HERA_1                     1705.29             450             0.5               0                 Open   ;
 P190                 J89                  CROCODILE_                    674.15             125           0.005               0                 Open   ;
 P191                 CROCODILE_           PACIFIC_RE                   2102.35             125           0.005               0                 Open   ;
 P192                 J89                  PORT                          908.41              75           0.005               0                 Open   ;
 P193                 PORT                 J90                           439.45              63           0.005               0                 Open   ;
 60                   T_RHS_Main           R_HERA_2                           1             110             0.5               0                 Open   ;
 58                   R_HERA_1             R_HERA_2                           1             160             0.5               0                 Open   ;

[PUMPS]
;ID                   Node1                Node2                Properties          
 pump_hera            17                   R_ALOIK_2            HEAD     pmpHera              PATTERN    VarSpeedHera           ;

[VALVES]
;ID                   Node1                Node2                            Diameter Type              Setting           Minor Loss
 PRV1                 prv1                 J87                              600 PRV               21               0   ;

[TAGS]
;type      name       tag       

[DEMANDS]
;ID        Demand     Pattern   

[STATUS]
;ID        Setting   
[PATTERNS]
;ID        Multipliers

1 0.840000 0.590000 0.160000 0.160000 0.400000 0.650000
1 1.080000 1.375000 1.750000 1.250000 1.110000 1.200000
1 1.250000 1.280000 1.202147 1.030411 1.030411 0.858676
1 0.858676 1.116279 1.288014 1.288014 1.202147 1.030411

VarSpeedHera 0.996810 0.998037 1.000545 1.003047 1.004831 1.005870
VarSpeedHera 1.005632 1.004519 1.002288 1.001544 1.001216 1.000620
VarSpeedHera 0.999874 0.999038 0.998434 0.998343 0.998252 0.998675
VarSpeedHera 0.999097 0.998749 0.997889 0.997027 0.996422 0.996331

[CURVES]
;ID         X-Value      Y-Value     
;PUMP: pmpHera
 pmpHera      724.432500   157.047346   ;


[CONTROLS]

[RULES]

[ENERGY]
GLOBAL EFFICIENCY      75.0000
GLOBAL PRICE           0.4200
DEMAND CHARGE          0.0000

[EMITTERS]
;ID        Flow coefficient

[QUALITY]

[SOURCES]
;Node      Type       Quality    Pattern   

[REACTIONS]
;Type           Pipe/Tank               Coefficient

 ORDER BULK 1
 ORDER TANK 1
 ORDER WALL 1
 GLOBAL BULK 0.0000    
 GLOBAL WALL 0.0000    
 LIMITING POTENTIAL 0.0000    
 ROUGHNESS CORRELATION 0.0000    

[MIXING]
;Tank ID             Model Fraction

[TIMES]
DURATION             24:00:00
HYDRAULIC TIMESTEP   01:00:00
QUALITY TIMESTEP     01:00:00
PATTERN TIMESTEP     01:00:00
PATTERN START        00:00:00
REPORT TIMESTEP      01:00:00
REPORT START         00:00:00
START CLOCKTIME      00:00:00 AM
RULE TIMESTEP        00:06:00
STATISTIC            NONE      

[REPORT]
SUMMARY    NO
PAGE       0

[OPTIONS]
UNITS                CMH                 
HEADLOSS             D-W                 
SPECIFIC GRAVITY     1
VISCOSITY            1
TRIALS               40
ACCURACY             0.001
CHECKFREQ            2
MAXCHECK             10
UNBALANCED           CONTINUE 10
PATTERN              1                   
DEMAND MULTIPLIER    1
EMITTER EXPONENT     0.5
QUALITY              NONE                
DIFFUSIVITY          1
TOLERANCE            0.01

[COORDINATES]
;Node      X-Coord    Y-Coord   
J87            791228.250000000    9053033.810000001
HEINEKEN       794211.270000000    9054568.460000001
J88            796460.870000000    9055184.789999999
UNI_HERA_1     792799.880000000    9053606.990000000
J89            794180.460000000    9055375.850000000
J90            795283.680000000    9055078.470000001
J91            795739.760000000    9054477.560000001
J92            794448.560000000    9053972.170000000
J93            795631.910000000    9055010.680000000
J94            795188.150000000    9054711.760000000
J95            795505.560000000    9054298.820000000
J96            795936.990000000    9054625.470000001
J97            794371.520000000    9054147.820000000
J98            795027.910000000    9054924.390000001
J99            794189.700000000    9055016.840000000
UNI_HERA_2     793379.230000000    9053993.740000000
PACIFIC_RE     792411.590000000    9056335.779999999
J131           795542.540000000    9055197.500000000
J132           792947.800000000    9053403.990000000
J133           793480.920000000    9053789.189999999
CROCODILE_     794180.170000000    9056050.000000000
PORT           795088.850000000    9055381.080000000
R_HERA_2       789688.000000000    9052104.119999999
R_ALOIK_2      788043.760000000    9052385.850000000
R_HERA_1       789659.550000000    9052086.350000000
prv1           791217.300000000    9053038.000000000
17             788040.850000000    9052476.939999999
T_RHS_Main     789694.470000000    9052079.240000000

[VERTICES]
;Link      X-Coord    Y-Coord   
P131           792038.720000000    9053252.990000000
P131           792451.660000000    9053376.250000000
P133           793930.840000000    9054362.380000001
P136           794420.820000000    9054676.710000001
P136           794790.620000000    9054787.650000000
P138           795447.010000000    9055188.260000000
P139           795542.540000000    9055105.050000001
P146           794245.170000000    9054507.220000001
P148           794017.130000000    9053798.439999999
P150           793477.840000000    9053493.359999999
P150           793185.090000000    9053268.400000000
P150           793040.250000000    9053268.400000000
P166           796089.140000000    9055186.720000001
P166           796320.270000000    9055192.880000001
P168           789649.480000000    9052207.350000000
P168           789666.430000000    9052304.420000000
P168           789671.060000000    9052350.650000000
P168           789691.090000000    9052403.029999999
P168           789726.520000000    9052444.640000001
P168           789771.210000000    9052475.449999999
P168           789832.840000000    9052441.560000001
P168           789885.230000000    9052418.439999999
P168           789911.420000000    9052444.640000001
P168           789914.500000000    9052476.990000000
P168           789959.190000000    9052497.020000000
P168           789997.710000000    9052523.220000001
P168           790000.790000000    9052557.119999999
P168           789997.710000000    9052583.310000001
P168           789999.250000000    9052611.050000001
P168           790016.200000000    9052626.449999999
P168           790037.770000000    9052643.400000000
P168           790060.880000000    9052666.520000000
P168           790097.860000000    9052677.300000001
P168           790125.600000000    9052678.840000000
P168           790164.120000000    9052677.300000001
P168           790194.930000000    9052666.520000000
P168           790239.620000000    9052658.810000001
P168           790292.010000000    9052644.939999999
P168           790328.980000000    9052635.699999999
P168           790384.450000000    9052614.130000001
P168           790409.110000000    9052612.590000000
P168           790443.010000000    9052631.080000000
P168           790473.820000000    9052648.029999999
P168           790510.800000000    9052657.270000000
P168           790544.700000000    9052657.270000000
P168           790557.030000000    9052671.140000001
P168           790555.490000000    9052697.330000000
P168           790540.080000000    9052732.770000000
P168           790538.540000000    9052762.050000001
P168           790555.490000000    9052780.539999999
P168           790627.900000000    9052799.029999999
P168           790671.050000000    9052806.730000000
P168           790712.650000000    9052834.460000001
P168           790714.190000000    9052863.740000000
P168           790711.110000000    9052899.180000000
P168           790720.350000000    9052942.320000000
P168           790769.660000000    9052963.890000001
P168           790817.420000000    9052977.760000000
P168           790840.540000000    9052990.090000000
P168           790848.240000000    9053008.580000000
P168           790854.400000000    9053027.070000000
P168           790865.190000000    9053037.850000000
P168           790897.550000000    9053030.150000000
P168           790919.120000000    9053028.609999999
P168           790936.070000000    9053034.770000000
P168           790969.970000000    9053044.020000000
P168           790994.620000000    9053027.070000000
P168           791028.520000000    9053019.359999999
P168           791051.630000000    9053050.180000000
P168           791063.960000000    9053077.910000000
P168           791074.740000000    9053102.570000000
P168           791104.020000000    9053122.600000000
P168           791119.430000000    9053130.300000001
P168           791153.320000000    9053110.270000000
P168           791165.650000000    9053084.080000000
P168           791174.890000000    9053062.510000000
P168           791198.010000000    9053045.560000001
P174           788280.330000000    9052419.740000000
P174           788395.120000000    9052408.570000000
P174           788668.230000000    9052275.289999999
P174           789022.040000000    9052108.300000001
P174           789237.560000000    9052035.109999999
P174           789316.530000000    9052024.520000000
P191           794152.360000000    9056155.970000001
P191           793929.820000000    9056272.529999999
P191           793781.470000000    9056288.430000000
P191           793633.110000000    9056341.410000000
P191           793574.830000000    9056436.779999999
P191           793516.550000000    9056516.260000000
P191           793426.480000000    9056415.590000000
P191           793278.120000000    9056415.590000000
P191           792970.810000000    9056404.990000000
P191           792859.550000000    9056404.990000000
P191           792748.280000000    9056463.279999999
P191           792663.510000000    9056489.770000000
P191           792594.630000000    9056452.680000000
P191           792531.050000000    9056367.900000000
P193           795198.790000000    9055382.400000000
P193           795251.770000000    9055334.720000001

[LABELS]

[BACKDROP]
DIMENSIONS    771649.84    9046618.69    797066.01    9057535.38
UNITS    METERS
OFFSET    0.00    0.00

[END]
